# =============================================================================
#  PROJET : VOILE D'OMBRAGE PH - PARABOLOÏDE HYPERBOLIQUE
#  Fichier : 02_calcul_principal.comm
#  Objet   : Calcul structural complet - tous cas de charges
#
#  Séquence :
#    Phase 0 : Lecture maillage + définition modèle global (membrane + acier)
#    Phase 1 : Application de la précontrainte (G0)
#    Phase 2 : Poids propre (G)
#    Phase 3 : Cas de charge variables (Vent+/-, Neige, Température)
#    Phase 4 : Combinaisons ELU/ELS selon EN 1990
#
#  Repère global : X = direction chaîne, Y = direction trame, Z = vertical haut
#  Unités       : N, mm, MPa, °C
# =============================================================================

DEBUT(LANG='FR', INFO=1)

# =============================================================================
#  PHASE 0 - LECTURE MAILLAGE ET MODÈLE
# =============================================================================

MAIL = LIRE_MAILLAGE(FORMAT='MED',
                     UNITE=20,
                     VERI_MAIL=_F(VERIF='OUI'))

MAIL = DEFI_GROUP(
    reuse=MAIL,
    MAILLAGE=MAIL,
    CREA_GROUP_MA=(
        # Tous les câbles
        _F(NOM='TOUS_CABLES',
           UNION=('CABLE_AB','CABLE_BC','CABLE_CD','CABLE_DA',
                  'CABLE_ANC_B','CABLE_ANC_D')),
        # Tous les haubans
        _F(NOM='TOUS_HAUBANS',
           UNION=('HAUBAN_A1','HAUBAN_A2','HAUBAN_C1','HAUBAN_C2')),
        # Tous les mâts
        _F(NOM='TOUS_MATS',
           UNION=('MAT_A','MAT_C')),
        # Structure acier (mâts + câbles + haubans)
        _F(NOM='ACIER_TOUT',
           UNION=('TOUS_MATS','TOUS_CABLES','TOUS_HAUBANS')),
    ),
    CREA_GROUP_NO=(
        _F(NOM='BORD_PERIM',
           UNION=('CABLE_AB','CABLE_BC','CABLE_CD','CABLE_DA')),
        _F(NOM='TOUS_APPUIS_NOE',
           UNION=('APPUI_MAT_A','APPUI_MAT_C',
                  'APPUI_B','APPUI_D',
                  'ANCRAGE_A1','ANCRAGE_A2',
                  'ANCRAGE_C1','ANCRAGE_C2')),
    ))

# ─── Modèle éléments finis global ────────────────────────────────────────────

MOD = AFFE_MODELE(
    MAILLAGE=MAIL,
    AFFE=(
        # Membrane textile - comportement membranaire pur (pas de flexion)
        _F(GROUP_MA    = ('MEMBRANE',),
           PHENOMENE   = 'MECANIQUE',
           MODELISATION= 'MEMBRANE'),

        # Mâts en acier - poutres 3D avec section tubulaire CHS
        _F(GROUP_MA    = ('TOUS_MATS',),
           PHENOMENE   = 'MECANIQUE',
           MODELISATION= 'POU_D_T'),  # Poutre droite avec torsion

        # Câbles périmétriques - barres uniquement en traction
        _F(GROUP_MA    = ('TOUS_CABLES',),
           PHENOMENE   = 'MECANIQUE',
           MODELISATION= 'CABLE'),    # Modélisation câble (traction seule)

        # Haubans - barres uniquement en traction
        _F(GROUP_MA    = ('TOUS_HAUBANS',),
           PHENOMENE   = 'MECANIQUE',
           MODELISATION= 'CABLE'),

        # Appuis élastiques (ressorts nodaux aux fondations)
        _F(GROUP_MA    = ('TOUS_APPUIS_NOE',),
           PHENOMENE   = 'MECANIQUE',
           MODELISATION= 'DIS_T'),    # Discret 3D
    ))

# =============================================================================
#  PHASE 0.1 - DÉFINITION DES MATÉRIAUX
# =============================================================================

# ─── Membrane textile Serge Ferrari Précontraint 702 ─────────────────────────
# Module membranaire (kN/m) converti en MPa×mm
EPAIS_E  = 0.9    # mm (épaisseur équivalente)
E1_MPA   = 1200.0 * 1000.0 / 1000.0 / EPAIS_E   # chaîne [MPa]
E2_MPA   = 850.0  * 1000.0 / 1000.0 / EPAIS_E   # trame [MPa]
G12_MPA  = 150.0  * 1000.0 / 1000.0 / EPAIS_E   # cisaillement [MPa]
NU_LT    = 0.15   # coefficient de Poisson

MAT_MEMB = DEFI_MATERIAU(
    ELAS_ORTH=_F(
        E_L    = E1_MPA,
        E_T    = E2_MPA,
        G_LT   = G12_MPA,
        NU_LT  = NU_LT,
        RHO    = 8.5e-7,       # kg/mm³ = 850 g/m² / 0.9mm
        ALPHA_L= 1.2e-5,       # dilatation thermique
        ALPHA_T= 1.2e-5,
    ))

# ─── Acier S355 - mâts ────────────────────────────────────────────────────────
MAT_ACIER = DEFI_MATERIAU(
    ELAS=_F(
        E   = 210000.0,     # MPa
        NU  = 0.3,
        RHO = 7.85e-6,      # kg/mm³
        ALPHA = 1.2e-5,     # dilatation thermique /°C
    ),
    ECRO_LINE=_F(
        D_SIGM_EPSI = 2100.0,   # module tangent plastique (1% E)
        SY          = 355.0,    # limite élastique S355 [MPa]
    ))

# ─── Acier câbles - classe 1×7, fu=1570 MPa ───────────────────────────────────
MAT_CABLE = DEFI_MATERIAU(
    ELAS=_F(
        E   = 160000.0,     # MPa (module câble hélicoïdal < acier massif)
        NU  = 0.3,
        RHO = 7.85e-6,
        ALPHA = 1.2e-5,
    ))

# ─── Raideurs des appuis élastiques (fondations) ─────────────────────────────
# Converties en N/mm : 1 kN/m = 1 N/mm
MAT_RESSORT = DEFI_MATERIAU(
    DIS_T=_F(
        K_T_D_N = 50000.0,   # raideur axiale N/mm (= 50 000 kN/m verticale)
        K_T_D_L = 30000.0,   # raideur latérale N/mm
        K_T_D_T = 30000.0,   # raideur transversale N/mm
    ))

# ─── Affectation des matériaux ────────────────────────────────────────────────
CHMAT = AFFE_MATERIAU(
    MAILLAGE=MAIL,
    AFFE=(
        _F(GROUP_MA='MEMBRANE',     MATER=MAT_MEMB),
        _F(GROUP_MA='TOUS_MATS',    MATER=MAT_ACIER),
        _F(GROUP_MA='TOUS_CABLES',  MATER=MAT_CABLE),
        _F(GROUP_MA='TOUS_HAUBANS', MATER=MAT_CABLE),
    ))

# =============================================================================
#  PHASE 0.2 - CARACTÉRISTIQUES DES ÉLÉMENTS
# =============================================================================

# Section mâts : CHS 139.7×8 (mm)
D_EXT_MAT = 139.7   # mm - diamètre extérieur
E_PAR_MAT = 8.0     # mm - épaisseur paroi
A_MAT  = 3.14159 / 4.0 * (D_EXT_MAT**2 - (D_EXT_MAT - 2*E_PAR_MAT)**2)
IY_MAT = 3.14159 / 64.0 * (D_EXT_MAT**4 - (D_EXT_MAT - 2*E_PAR_MAT)**4)
IZ_MAT = IY_MAT
IXX_MAT = 2.0 * IY_MAT  # inertie de torsion (section circulaire creuse)

# Sections câbles (mm²) - diamètre en mm
D_CAB_PERIM = 16.0      # câble périmétrique Ø16
A_CAB_PERIM = 3.14159 / 4.0 * D_CAB_PERIM**2

D_HAUBAN = 12.0         # hauban Ø12
A_HAUBAN = 3.14159 / 4.0 * D_HAUBAN**2

D_CAB_ANC = 16.0        # câble d'ancrage Ø16
A_CAB_ANC = 3.14159 / 4.0 * D_CAB_ANC**2

CARA = AFFE_CARA_ELEM(
    MODELE=MOD,
    MEMBRANE=_F(
        GROUP_MA   = 'MEMBRANE',
        EPAIS      = EPAIS_E,
        ANGL_REP_1 = (0.0, 0.0),    # chaîne selon X global
        ANGL_REP_2 = (90.0, 0.0),   # trame selon Y global
    ),
    POUTRE=(
        _F(GROUP_MA = 'TOUS_MATS',
           SECTION   = 'CERCLE',
           CARA      = ('R','EP'),
           VALE      = (D_EXT_MAT/2.0, E_PAR_MAT)),
    ),
    CABLE=(
        _F(GROUP_MA = ('CABLE_AB','CABLE_BC','CABLE_CD','CABLE_DA'),
           SECTION   = A_CAB_PERIM,
           FCX       = 0.0),    # pas de raideur en compression
        _F(GROUP_MA = ('CABLE_ANC_B','CABLE_ANC_D'),
           SECTION   = A_CAB_ANC,
           FCX       = 0.0),
        _F(GROUP_MA = ('TOUS_HAUBANS',),
           SECTION   = A_HAUBAN,
           FCX       = 0.0),
    ),
    DISCRET=(
        # Ressorts d'appuis (nodaux) - raideurs isotropes 3D
        _F(GROUP_MA   = 'TOUS_APPUIS_NOE',
           CARA        = 'K_T_D_N',
           VALE        = (50000.0, 30000.0, 30000.0),  # N/mm (Kn, Kl, Kt)
           SYME        = 'OUI'),
    ))

# =============================================================================
#  PHASE 1 - CONDITIONS AUX LIMITES PERMANENTES
# =============================================================================

CL_APPUIS = AFFE_CHAR_MECA(
    MODELE=MOD,
    DDL_IMPO=(
        # Pieds de mâts : encastrés au niveau des platines de pied
        # (la rigidité de la fondation est modélisée par les ressorts)
        # On bloque les translations pour laisser les ressorts travailler
        _F(GROUP_NO=('APPUI_MAT_A','APPUI_MAT_C'),
           DX=0.0, DY=0.0, DZ=0.0, DRX=0.0, DRY=0.0, DRZ=0.0),

        # Ancrages câbles au sol : encastrement complet (dalle béton)
        _F(GROUP_NO=('APPUI_B','APPUI_D',
                     'ANCRAGE_A1','ANCRAGE_A2',
                     'ANCRAGE_C1','ANCRAGE_C2'),
           DX=0.0, DY=0.0, DZ=0.0),
    ))

# =============================================================================
#  PHASE 1.1 - PRÉCONTRAINTE INITIALE
#  Technique : allongement/raccourcissement forcé des câbles + tension membrane
# =============================================================================

# Tension câbles périmétrique : F0 = 15 kN = 15 000 N
F0_CAB_PERIM = 15000.0   # N
# Déformation initiale équivalente : ε0 = F0 / (E×A)
EPS0_CAB  = F0_CAB_PERIM / (160000.0 * A_CAB_PERIM)

# Tension haubans : F0 = 8 kN = 8 000 N
F0_HAUBAN = 8000.0    # N
EPS0_HAU  = F0_HAUBAN / (160000.0 * A_HAUBAN)

# Précontrainte membrane : σ0 = 3 kN/m = 3 N/mm → déformation initiale
SIG0_MEMB = 3.0        # N/mm (= kN/m)
EPS0_MEMB = SIG0_MEMB / E1_MPA

# Chargement de précontrainte (déformation initiale imposée)
PREC_INIT = AFFE_CHAR_MECA(
    MODELE=MOD,
    EPSI_INIT=(
        # Membrane : tension isotrope initiale
        _F(GROUP_MA = 'MEMBRANE',
           EPXX = -EPS0_MEMB,   # chaîne (traction ← raccourcissement imposé)
           EPYY = -EPS0_MEMB,   # trame
           EPXY = 0.0),
        # Câbles périmétrique : raccourcissement imposé
        _F(GROUP_MA=('CABLE_AB','CABLE_BC','CABLE_CD','CABLE_DA'),
           EPXX = -EPS0_CAB),
        _F(GROUP_MA=('CABLE_ANC_B','CABLE_ANC_D'),
           EPXX = -EPS0_CAB),
        # Haubans : tension initiale
        _F(GROUP_MA='TOUS_HAUBANS',
           EPXX = -EPS0_HAU),
    ))

# Liste de temps pour phase précontrainte
L_PREC = DEFI_LIST_REEL(DEBUT=0.0,
                          INTERVALLE=_F(JUSQU_A=1.0, NOMBRE=10))

FONC_PREC = DEFI_FONCTION(NOM_PARA='INST',
                            VALE=(0.0, 0.0, 1.0, 1.0),
                            PROL_DROITE='CONSTANT')

# =============================================================================
#  PHASE 1.2 - CHARGES PERMANENTES (POIDS PROPRE)
# =============================================================================

# Poids propre de la structure (calculé automatiquement depuis RHO + section)
G_PP = AFFE_CHAR_MECA(
    MODELE=MOD,
    PESANTEUR=_F(GRAVITE=9810.0,     # mm/s² (= 9.81 m/s²)
                  DIRECTION=(0.0, 0.0, -1.0)))

# Poids propre membrane surfacique : q_g = 850 g/m² × g = 8.34 N/m² = 8.34e-3 N/mm²
Q_MEMB = 0.85 * 9.81 / 1000.0 / 1000.0   # N/mm² (kPa → N/mm²)

G_MEMB_SURF = AFFE_CHAR_MECA(
    MODELE=MOD,
    FORCE_ARETE=_F(GROUP_MA='MEMBRANE',
                    FZ=-Q_MEMB))

# =============================================================================
#  PHASE 2 - CHARGES VARIABLES
# =============================================================================

# ─── Vent pression (Cp = +0.60) ──────────────────────────────────────────────
# qp = 0.70 kN/m² = 0.70 N/mm² × 1e-3 → 7.0e-4 N/mm²
QP_kNm2 = 0.70     # kN/m²
CP_PRES  = 0.60    # coefficient de pression
Q_VENT_P = QP_kNm2 * CP_PRES / 1000.0 / 1000.0  # N/mm² (pression positive = vers le bas)

VENT_P = AFFE_CHAR_MECA(
    MODELE=MOD,
    FORCE_ARETE=_F(GROUP_MA='MEMBRANE',
                    FZ=-Q_VENT_P))   # convention : pression appliquée vers le bas

# ─── Vent succion (Cp = -1.30) ───────────────────────────────────────────────
CP_SUC   = -1.30
Q_VENT_S = QP_kNm2 * abs(CP_SUC) / 1000.0 / 1000.0

VENT_S = AFFE_CHAR_MECA(
    MODELE=MOD,
    FORCE_ARETE=_F(GROUP_MA='MEMBRANE',
                    FZ=+Q_VENT_S))   # succion = force vers le haut

# ─── Neige (μ1=0.8, sk=0.45 kN/m²) ──────────────────────────────────────────
S_NEIGE_kNm2 = 0.8 * 0.45      # kN/m²
Q_NEIGE = S_NEIGE_kNm2 / 1000.0 / 1000.0  # N/mm²

NEIGE = AFFE_CHAR_MECA(
    MODELE=MOD,
    FORCE_ARETE=_F(GROUP_MA='MEMBRANE',
                    FZ=-Q_NEIGE))

# ─── Température + (ΔT = +35°C) ──────────────────────────────────────────────
TEMP_P = AFFE_CHAR_MECA(
    MODELE=MOD,
    TEMP_CALCULEE=_F(GROUP_MA=('MEMBRANE','TOUS_MATS','TOUS_CABLES','TOUS_HAUBANS'),
                      NOM_CHAM='TEMP',
                      VALE=35.0))

# ─── Température - (ΔT = -25°C) ──────────────────────────────────────────────
TEMP_M = AFFE_CHAR_MECA(
    MODELE=MOD,
    TEMP_CALCULEE=_F(GROUP_MA=('MEMBRANE','TOUS_MATS','TOUS_CABLES','TOUS_HAUBANS'),
                      NOM_CHAM='TEMP',
                      VALE=-25.0))

# =============================================================================
#  PHASE 3 - ANALYSE NON LINÉAIRE GÉOMÉTRIQUE
#  STAT_NON_LINE avec grands déplacements (GROT_GDEP)
# =============================================================================

# Liste de temps globale (précontrainte puis charges)
L_INST_GLOB = DEFI_LIST_REEL(
    DEBUT=0.0,
    INTERVALLE=(
        _F(JUSQU_A=1.0,  NOMBRE=10),   # précontrainte
        _F(JUSQU_A=2.0,  NOMBRE=10),   # poids propre
        _F(JUSQU_A=3.0,  NOMBRE=10),   # vent pression
        _F(JUSQU_A=4.0,  NOMBRE=10),   # vent succion
        _F(JUSQU_A=5.0,  NOMBRE=10),   # neige
        _F(JUSQU_A=6.0,  NOMBRE=5),    # température +
        _F(JUSQU_A=7.0,  NOMBRE=5),    # température -
    ))

FONC_UNIT = DEFI_FONCTION(NOM_PARA='INST',
                            VALE=(0.0, 0.0, 1.0, 1.0),
                            PROL_DROITE='CONSTANT',
                            PROL_GAUCHE='EXCLU')

# Fonctions rampes pour chaque cas de charge
def ramp(t_start, t_end):
    """Retourne une fonction rampe entre t_start et t_end."""
    return DEFI_FONCTION(
        NOM_PARA='INST',
        VALE=(0.0, 0.0, t_start, 0.0, t_end, 1.0, 7.0, 1.0),
        PROL_DROITE='CONSTANT',
        PROL_GAUCHE='EXCLU')

F_PREC  = ramp(0.0, 1.0)
F_PP    = ramp(1.0, 2.0)
F_VENTP = ramp(2.0, 3.0)
F_VENTS = ramp(3.0, 4.0)
F_NEIGE = ramp(4.0, 5.0)
F_TEMPP = ramp(5.0, 6.0)
F_TEMPM = ramp(6.0, 7.0)

COMPORTEMENT_NL = (
    # Membrane : grands déplacements, comportement membranaire
    _F(RELATION    = 'ELAS',
       DEFORMATION = 'GROT_GDEP',
       GROUP_MA    = 'MEMBRANE'),
    # Mâts : grands déplacements poutres
    _F(RELATION    = 'ELAS',
       DEFORMATION = 'GROT_GDEP',
       GROUP_MA    = 'TOUS_MATS'),
    # Câbles : traction seule (pas de compression)
    _F(RELATION    = 'CABLE',
       DEFORMATION = 'PETIT',
       GROUP_MA    = ('TOUS_CABLES','TOUS_HAUBANS')),
)

# ─── Calcul non-linéaire complet ─────────────────────────────────────────────
RESU = STAT_NON_LINE(
    MODELE    = MOD,
    CHAM_MATER= CHMAT,
    CARA_ELEM = CARA,
    EXCIT=(
        _F(CHARGE    = CL_APPUIS),
        _F(CHARGE    = PREC_INIT,  FONC_MULT=F_PREC),
        _F(CHARGE    = G_PP,       FONC_MULT=F_PP),
        _F(CHARGE    = G_MEMB_SURF, FONC_MULT=F_PP),
        _F(CHARGE    = VENT_P,     FONC_MULT=F_VENTP),
        _F(CHARGE    = VENT_S,     FONC_MULT=F_VENTS),
        _F(CHARGE    = NEIGE,      FONC_MULT=F_NEIGE),
        _F(CHARGE    = TEMP_P,     FONC_MULT=F_TEMPP),
        _F(CHARGE    = TEMP_M,     FONC_MULT=F_TEMPM),
    ),
    COMPORTEMENT=COMPORTEMENT_NL,
    INCREMENT=_F(
        LIST_INST    = L_INST_GLOB,
        INST_FIN     = 7.0,
    ),
    NEWTON=_F(
        MATRICE      = 'TANGENTE',
        REAC_ITER    = 1,
        REAC_ITER_ELAS = 3,
    ),
    CONVERGENCE=_F(
        ITER_GLOB_MAXI = 50,
        RESI_RELA      = 1.0e-4,
        ARRET          = 'OUI',
    ),
    SOLVEUR=_F(METHODE='MUMPS'),
    RECH_LINEAIRE=_F(METHODE='CORDE', ITER_LINE_MAXI=5),
    ARCHIVAGE=_F(
        LIST_INST = DEFI_LIST_REEL(
            VALE=(1.0, 2.0, 3.0, 4.0, 5.0, 6.0, 7.0)  # archiver fin de chaque cas
        )),
)

# =============================================================================
#  PHASE 4 - COMBINAISONS EUROCODES EN 1990
#
#  Cas archivés :
#    t=1.0 → Précontrainte seule (G0)
#    t=2.0 → G0 + poids propre (G)
#    t=3.0 → G0 + G + vent pression (Wp)
#    t=4.0 → G0 + G + vent succion (Ws)
#    t=5.0 → G0 + G + neige (S)
#    t=6.0 → G0 + G + température+ (T+)
#    t=7.0 → G0 + G + température- (T-)
#
#  Les combinaisons ELU/ELS sont construites par post-traitement linéaire
#  (valable en hypothèse de superposition - vérifier dans le domaine NL)
# =============================================================================

# Instants de référence
T_G0   = 1.0    # précontrainte
T_G    = 2.0    # G0 + poids propre
T_WP   = 3.0    # G0 + G + vent pression
T_WS   = 4.0    # G0 + G + vent succion
T_SN   = 5.0    # G0 + G + neige
T_TP   = 6.0    # G0 + G + température+
T_TM   = 7.0    # G0 + G + température-

# Calcul des champs nécessaires au post-traitement
RESU = CALC_CHAMP(
    reuse=RESU,
    RESULTAT=RESU,
    CONTRAINTE=('SIEF_ELGA','SIEF_ELNO','EFGE_ELNO'),
    DEFORMATION=('EPSI_ELGA','EPSI_ELNO'),
    FORCE=('REAC_NODA','FORC_NODA'),
    INST=(T_G0, T_G, T_WP, T_WS, T_SN, T_TP, T_TM),
)

# ─── Combinaisons ELU (situation persistante/transitoire) ────────────────────
#  ELU1 : 1.35G + 1.50Wp (vent dominant)
#  ELU2 : 1.35G + 1.50Ws (succion dominante)
#  ELU3 : 1.35G + 1.50S  (neige dominante)
#  ELU4 : 1.00G + 1.50Wp + 0.50×1.50S (favorable+vent+neige combiné)
#
# Rappel : dans notre modèle superposable :
#  W_nette(t=WP) - W_nette(t=G) = ΔWp (incrément dû au vent pression)
#
# La combinaison ELU est construite manuellement dans la section POST-TRAITEMENT.
# Pour une vraie combinaison : utiliser COMB_RESU (si disponible) ou post-traitement Python.

# =============================================================================
#  EXPORT RÉSULTATS - Format MED pour ParaVis/GMSH/Salome
# =============================================================================

IMPR_RESU(
    FORMAT='MED',
    UNITE=80,
    RESU=(
        _F(RESULTAT = RESU,
           NOM_CHAM  = ('DEPL','SIEF_ELNO','EFGE_ELNO','REAC_NODA'),
           INST      = (T_G0, T_G, T_WP, T_WS, T_SN, T_TP, T_TM),
           IMPR_NOM_VARI = 'OUI'),
    ))

FIN()
